36
Cu2.su.s7.ion.100.endn5i0e1Li_final
Cu 0.00000 0.00000 0.00000 
Cu 1.81898 1.81898 0.00000 
Cu 0.00000 1.81898 1.81898 
Cu 1.81898 0.00000 1.81898 
Cu 0.00000 0.00000 3.63796 
Cu 1.81898 1.81898 3.63796 
Cu 0.00000 1.81898 5.45694 
Cu 1.81898 0.00000 5.45694 
Cu 0.00000 3.63796 0.00000 
Cu 1.81898 5.45694 0.00000 
Cu 0.00000 5.45694 1.81898 
Cu 1.81898 3.63796 1.81898 
Cu 0.00000 3.63796 3.63796 
Cu 1.81898 5.45694 3.63796 
Cu 0.00000 5.45694 5.45694 
Cu 1.81898 3.63796 5.45694 
Cu 3.63796 0.00000 0.00000 
Cu 5.45694 1.81898 0.00000 
Cu 3.63796 1.81898 1.81898 
Cu 5.45694 0.00000 1.81898 
Cu 3.63796 0.00000 3.63796 
Cu 5.45694 1.81898 3.63796 
Cu 3.63796 1.81898 5.45694 
Cu 5.45694 0.00000 5.45694 
Cu 3.63796 3.63796 0.00000 
Cu 5.45694 5.45694 0.00000 
Cu 3.63796 5.45694 1.81898 
Cu 5.45694 3.63796 1.81898 
Cu 3.63796 3.63796 3.63796 
Cu 5.45694 5.45694 3.63796 
Cu 3.63796 5.45694 5.45694 
Cu 5.45694 3.63796 5.45694 
Li 1.81115 1.80855 1.80855 
Tv 7.2759220000 0.0000000000 0.0000000000
Tv 0.0000000000 7.2759220000 0.0000000000
Tv 0.0000000000 0.0000000000 7.2759220000
