515
Cu2.su.s7.ion.100.end_possible_positions_replicated
Cu 0.00000 0.00000 0.00000 
Cu 0.00000 0.00000 7.27592 
Cu 0.00000 7.27592 0.00000 
Cu 0.00000 7.27592 7.27592 
Cu 7.27592 0.00000 0.00000 
Cu 7.27592 0.00000 7.27592 
Cu 7.27592 7.27592 0.00000 
Cu 7.27592 7.27592 7.27592 
Cu 1.81898 1.81898 0.00000 
Cu 1.81898 1.81898 7.27592 
Cu 1.81898 9.09490 0.00000 
Cu 1.81898 9.09490 7.27592 
Cu 9.09490 1.81898 0.00000 
Cu 9.09490 1.81898 7.27592 
Cu 9.09490 9.09490 0.00000 
Cu 9.09490 9.09490 7.27592 
Cu 0.00000 1.81898 1.81898 
Cu 0.00000 1.81898 9.09490 
Cu 0.00000 9.09490 1.81898 
Cu 0.00000 9.09490 9.09490 
Cu 7.27592 1.81898 1.81898 
Cu 7.27592 1.81898 9.09490 
Cu 7.27592 9.09490 1.81898 
Cu 7.27592 9.09490 9.09490 
Cu 1.81898 0.00000 1.81898 
Cu 1.81898 0.00000 9.09490 
Cu 1.81898 7.27592 1.81898 
Cu 1.81898 7.27592 9.09490 
Cu 9.09490 0.00000 1.81898 
Cu 9.09490 0.00000 9.09490 
Cu 9.09490 7.27592 1.81898 
Cu 9.09490 7.27592 9.09490 
Cu 0.00000 0.00000 3.63796 
Cu 0.00000 0.00000 10.91388 
Cu 0.00000 7.27592 3.63796 
Cu 0.00000 7.27592 10.91388 
Cu 7.27592 0.00000 3.63796 
Cu 7.27592 0.00000 10.91388 
Cu 7.27592 7.27592 3.63796 
Cu 7.27592 7.27592 10.91388 
Cu 1.81898 1.81898 3.63796 
Cu 1.81898 1.81898 10.91388 
Cu 1.81898 9.09490 3.63796 
Cu 1.81898 9.09490 10.91388 
Cu 9.09490 1.81898 3.63796 
Cu 9.09490 1.81898 10.91388 
Cu 9.09490 9.09490 3.63796 
Cu 9.09490 9.09490 10.91388 
Cu 0.00000 1.81898 5.45694 
Cu 0.00000 1.81898 12.73286 
Cu 0.00000 9.09490 5.45694 
Cu 0.00000 9.09490 12.73286 
Cu 7.27592 1.81898 5.45694 
Cu 7.27592 1.81898 12.73286 
Cu 7.27592 9.09490 5.45694 
Cu 7.27592 9.09490 12.73286 
Cu 1.81898 0.00000 5.45694 
Cu 1.81898 0.00000 12.73286 
Cu 1.81898 7.27592 5.45694 
Cu 1.81898 7.27592 12.73286 
Cu 9.09490 0.00000 5.45694 
Cu 9.09490 0.00000 12.73286 
Cu 9.09490 7.27592 5.45694 
Cu 9.09490 7.27592 12.73286 
Cu 0.00000 3.63796 0.00000 
Cu 0.00000 3.63796 7.27592 
Cu 0.00000 10.91388 0.00000 
Cu 0.00000 10.91388 7.27592 
Cu 7.27592 3.63796 0.00000 
Cu 7.27592 3.63796 7.27592 
Cu 7.27592 10.91388 0.00000 
Cu 7.27592 10.91388 7.27592 
Cu 1.81898 5.45694 0.00000 
Cu 1.81898 5.45694 7.27592 
Cu 1.81898 12.73286 0.00000 
Cu 1.81898 12.73286 7.27592 
Cu 9.09490 5.45694 0.00000 
Cu 9.09490 5.45694 7.27592 
Cu 9.09490 12.73286 0.00000 
Cu 9.09490 12.73286 7.27592 
Cu 0.00000 5.45694 1.81898 
Cu 0.00000 5.45694 9.09490 
Cu 0.00000 12.73286 1.81898 
Cu 0.00000 12.73286 9.09490 
Cu 7.27592 5.45694 1.81898 
Cu 7.27592 5.45694 9.09490 
Cu 7.27592 12.73286 1.81898 
Cu 7.27592 12.73286 9.09490 
Cu 1.81898 3.63796 1.81898 
Cu 1.81898 3.63796 9.09490 
Cu 1.81898 10.91388 1.81898 
Cu 1.81898 10.91388 9.09490 
Cu 9.09490 3.63796 1.81898 
Cu 9.09490 3.63796 9.09490 
Cu 9.09490 10.91388 1.81898 
Cu 9.09490 10.91388 9.09490 
Cu 0.00000 3.63796 3.63796 
Cu 0.00000 3.63796 10.91388 
Cu 0.00000 10.91388 3.63796 
Cu 0.00000 10.91388 10.91388 
Cu 7.27592 3.63796 3.63796 
Cu 7.27592 3.63796 10.91388 
Cu 7.27592 10.91388 3.63796 
Cu 7.27592 10.91388 10.91388 
Cu 1.81898 5.45694 3.63796 
Cu 1.81898 5.45694 10.91388 
Cu 1.81898 12.73286 3.63796 
Cu 1.81898 12.73286 10.91388 
Cu 9.09490 5.45694 3.63796 
Cu 9.09490 5.45694 10.91388 
Cu 9.09490 12.73286 3.63796 
Cu 9.09490 12.73286 10.91388 
Cu 0.00000 5.45694 5.45694 
Cu 0.00000 5.45694 12.73286 
Cu 0.00000 12.73286 5.45694 
Cu 0.00000 12.73286 12.73286 
Cu 7.27592 5.45694 5.45694 
Cu 7.27592 5.45694 12.73286 
Cu 7.27592 12.73286 5.45694 
Cu 7.27592 12.73286 12.73286 
Cu 1.81898 3.63796 5.45694 
Cu 1.81898 3.63796 12.73286 
Cu 1.81898 10.91388 5.45694 
Cu 1.81898 10.91388 12.73286 
Cu 9.09490 3.63796 5.45694 
Cu 9.09490 3.63796 12.73286 
Cu 9.09490 10.91388 5.45694 
Cu 9.09490 10.91388 12.73286 
Cu 3.63796 0.00000 0.00000 
Cu 3.63796 0.00000 7.27592 
Cu 3.63796 7.27592 0.00000 
Cu 3.63796 7.27592 7.27592 
Cu 10.91388 0.00000 0.00000 
Cu 10.91388 0.00000 7.27592 
Cu 10.91388 7.27592 0.00000 
Cu 10.91388 7.27592 7.27592 
Cu 5.45694 1.81898 0.00000 
Cu 5.45694 1.81898 7.27592 
Cu 5.45694 9.09490 0.00000 
Cu 5.45694 9.09490 7.27592 
Cu 12.73286 1.81898 0.00000 
Cu 12.73286 1.81898 7.27592 
Cu 12.73286 9.09490 0.00000 
Cu 12.73286 9.09490 7.27592 
Cu 3.63796 1.81898 1.81898 
Cu 3.63796 1.81898 9.09490 
Cu 3.63796 9.09490 1.81898 
Cu 3.63796 9.09490 9.09490 
Cu 10.91388 1.81898 1.81898 
Cu 10.91388 1.81898 9.09490 
Cu 10.91388 9.09490 1.81898 
Cu 10.91388 9.09490 9.09490 
Cu 5.45694 0.00000 1.81898 
Cu 5.45694 0.00000 9.09490 
Cu 5.45694 7.27592 1.81898 
Cu 5.45694 7.27592 9.09490 
Cu 12.73286 0.00000 1.81898 
Cu 12.73286 0.00000 9.09490 
Cu 12.73286 7.27592 1.81898 
Cu 12.73286 7.27592 9.09490 
Cu 3.63796 0.00000 3.63796 
Cu 3.63796 0.00000 10.91388 
Cu 3.63796 7.27592 3.63796 
Cu 3.63796 7.27592 10.91388 
Cu 10.91388 0.00000 3.63796 
Cu 10.91388 0.00000 10.91388 
Cu 10.91388 7.27592 3.63796 
Cu 10.91388 7.27592 10.91388 
Cu 5.45694 1.81898 3.63796 
Cu 5.45694 1.81898 10.91388 
Cu 5.45694 9.09490 3.63796 
Cu 5.45694 9.09490 10.91388 
Cu 12.73286 1.81898 3.63796 
Cu 12.73286 1.81898 10.91388 
Cu 12.73286 9.09490 3.63796 
Cu 12.73286 9.09490 10.91388 
Cu 3.63796 1.81898 5.45694 
Cu 3.63796 1.81898 12.73286 
Cu 3.63796 9.09490 5.45694 
Cu 3.63796 9.09490 12.73286 
Cu 10.91388 1.81898 5.45694 
Cu 10.91388 1.81898 12.73286 
Cu 10.91388 9.09490 5.45694 
Cu 10.91388 9.09490 12.73286 
Cu 5.45694 0.00000 5.45694 
Cu 5.45694 0.00000 12.73286 
Cu 5.45694 7.27592 5.45694 
Cu 5.45694 7.27592 12.73286 
Cu 12.73286 0.00000 5.45694 
Cu 12.73286 0.00000 12.73286 
Cu 12.73286 7.27592 5.45694 
Cu 12.73286 7.27592 12.73286 
Cu 3.63796 3.63796 0.00000 
Cu 3.63796 3.63796 7.27592 
Cu 3.63796 10.91388 0.00000 
Cu 3.63796 10.91388 7.27592 
Cu 10.91388 3.63796 0.00000 
Cu 10.91388 3.63796 7.27592 
Cu 10.91388 10.91388 0.00000 
Cu 10.91388 10.91388 7.27592 
Cu 5.45694 5.45694 0.00000 
Cu 5.45694 5.45694 7.27592 
Cu 5.45694 12.73286 0.00000 
Cu 5.45694 12.73286 7.27592 
Cu 12.73286 5.45694 0.00000 
Cu 12.73286 5.45694 7.27592 
Cu 12.73286 12.73286 0.00000 
Cu 12.73286 12.73286 7.27592 
Cu 3.63796 5.45694 1.81898 
Cu 3.63796 5.45694 9.09490 
Cu 3.63796 12.73286 1.81898 
Cu 3.63796 12.73286 9.09490 
Cu 10.91388 5.45694 1.81898 
Cu 10.91388 5.45694 9.09490 
Cu 10.91388 12.73286 1.81898 
Cu 10.91388 12.73286 9.09490 
Cu 5.45694 3.63796 1.81898 
Cu 5.45694 3.63796 9.09490 
Cu 5.45694 10.91388 1.81898 
Cu 5.45694 10.91388 9.09490 
Cu 12.73286 3.63796 1.81898 
Cu 12.73286 3.63796 9.09490 
Cu 12.73286 10.91388 1.81898 
Cu 12.73286 10.91388 9.09490 
Cu 3.63796 3.63796 3.63796 
Cu 3.63796 3.63796 10.91388 
Cu 3.63796 10.91388 3.63796 
Cu 3.63796 10.91388 10.91388 
Cu 10.91388 3.63796 3.63796 
Cu 10.91388 3.63796 10.91388 
Cu 10.91388 10.91388 3.63796 
Cu 10.91388 10.91388 10.91388 
Cu 5.45694 5.45694 3.63796 
Cu 5.45694 5.45694 10.91388 
Cu 5.45694 12.73286 3.63796 
Cu 5.45694 12.73286 10.91388 
Cu 12.73286 5.45694 3.63796 
Cu 12.73286 5.45694 10.91388 
Cu 12.73286 12.73286 3.63796 
Cu 12.73286 12.73286 10.91388 
Cu 3.63796 5.45694 5.45694 
Cu 3.63796 5.45694 12.73286 
Cu 3.63796 12.73286 5.45694 
Cu 3.63796 12.73286 12.73286 
Cu 10.91388 5.45694 5.45694 
Cu 10.91388 5.45694 12.73286 
Cu 10.91388 12.73286 5.45694 
Cu 10.91388 12.73286 12.73286 
Cu 5.45694 3.63796 5.45694 
Cu 5.45694 3.63796 12.73286 
Cu 5.45694 10.91388 5.45694 
Cu 5.45694 10.91388 12.73286 
Cu 12.73286 3.63796 5.45694 
Cu 12.73286 3.63796 12.73286 
Cu 12.73286 10.91388 5.45694 
Cu 12.73286 10.91388 12.73286 
H 0.00000 0.00000 1.81126 
H 0.00000 0.00000 9.08719 
H 0.00000 7.27592 1.81126 
H 0.00000 7.27592 9.08719 
H 7.27592 0.00000 1.81126 
H 7.27592 0.00000 9.08719 
H 7.27592 7.27592 1.81126 
H 7.27592 7.27592 9.08719 
H 0.00000 0.00000 5.44922 
H 0.00000 0.00000 12.72515 
H 0.00000 7.27592 5.44922 
H 0.00000 7.27592 12.72515 
H 7.27592 0.00000 5.44922 
H 7.27592 0.00000 12.72515 
H 7.27592 7.27592 5.44922 
H 7.27592 7.27592 12.72515 
H 0.00000 1.81126 0.00000 
H 0.00000 1.81126 7.27592 
H 0.00000 9.08719 0.00000 
H 0.00000 9.08719 7.27592 
H 7.27592 1.81126 0.00000 
H 7.27592 1.81126 7.27592 
H 7.27592 9.08719 0.00000 
H 7.27592 9.08719 7.27592 
H 0.00000 1.83391 3.63460 
H 0.00000 1.83391 10.91053 
H 0.00000 9.10983 3.63460 
H 0.00000 9.10983 10.91053 
H 7.27592 1.83391 3.63460 
H 7.27592 1.83391 10.91053 
H 7.27592 9.10983 3.63460 
H 7.27592 9.10983 10.91053 
H 0.00000 3.63460 1.83391 
H 0.00000 3.63460 9.10983 
H 0.00000 10.91053 1.83391 
H 0.00000 10.91053 9.10983 
H 7.27592 3.63460 1.83391 
H 7.27592 3.63460 9.10983 
H 7.27592 10.91053 1.83391 
H 7.27592 10.91053 9.10983 
H 0.00000 3.64092 5.47447 
H 0.00000 3.64092 12.75039 
H 0.00000 10.91684 5.47447 
H 0.00000 10.91684 12.75039 
H 7.27592 3.64092 5.47447 
H 7.27592 3.64092 12.75039 
H 7.27592 10.91684 5.47447 
H 7.27592 10.91684 12.75039 
H 0.00000 5.44923 0.00000 
H 0.00000 5.44923 7.27592 
H 0.00000 12.72515 0.00000 
H 0.00000 12.72515 7.27592 
H 7.27592 5.44923 0.00000 
H 7.27592 5.44923 7.27592 
H 7.27592 12.72515 0.00000 
H 7.27592 12.72515 7.27592 
H 0.00000 5.47447 3.64092 
H 0.00000 5.47447 10.91684 
H 0.00000 12.75039 3.64092 
H 0.00000 12.75039 10.91684 
H 7.27592 5.47447 3.64092 
H 7.27592 5.47447 10.91684 
H 7.27592 12.75039 3.64092 
H 7.27592 12.75039 10.91684 
H 1.81126 0.00000 0.00000 
H 1.81126 0.00000 7.27592 
H 1.81126 7.27592 0.00000 
H 1.81126 7.27592 7.27592 
H 9.08718 0.00000 0.00000 
H 9.08718 0.00000 7.27592 
H 9.08718 7.27592 0.00000 
H 9.08718 7.27592 7.27592 
H 1.83650 0.00000 3.63461 
H 1.83650 0.00000 10.91053 
H 1.83650 7.27592 3.63461 
H 1.83650 7.27592 10.91053 
H 9.11243 0.00000 3.63461 
H 9.11243 0.00000 10.91053 
H 9.11243 7.27592 3.63461 
H 9.11243 7.27592 10.91053 
H 1.81115 1.80855 1.80855 
H 1.81115 1.80855 9.08448 
H 1.81115 9.08448 1.80855 
H 1.81115 9.08448 9.08448 
H 9.08707 1.80855 1.80855 
H 9.08707 1.80855 9.08448 
H 9.08707 9.08448 1.80855 
H 9.08707 9.08448 9.08448 
H 1.83314 1.83474 5.44828 
H 1.83314 1.83474 12.72421 
H 1.83314 9.11066 5.44828 
H 1.83314 9.11066 12.72421 
H 9.10906 1.83474 5.44828 
H 9.10906 1.83474 12.72421 
H 9.10906 9.11066 5.44828 
H 9.10906 9.11066 12.72421 
H 1.80790 3.64092 0.00000 
H 1.80790 3.64092 7.27592 
H 1.80790 10.91684 0.00000 
H 1.80790 10.91684 7.27592 
H 9.08382 3.64092 0.00000 
H 9.08382 3.64092 7.27592 
H 9.08382 10.91684 0.00000 
H 9.08382 10.91684 7.27592 
H 1.83672 3.63646 3.63966 
H 1.83672 3.63646 10.91558 
H 1.83672 10.91238 3.63966 
H 1.83672 10.91238 10.91558 
H 9.11265 3.63646 3.63966 
H 9.11265 3.63646 10.91558 
H 9.11265 10.91238 3.63966 
H 9.11265 10.91238 10.91558 
H 1.81137 5.44911 1.83391 
H 1.81137 5.44911 9.10983 
H 1.81137 12.72504 1.83391 
H 1.81137 12.72504 9.10983 
H 9.08729 5.44911 1.83391 
H 9.08729 5.44911 9.10983 
H 9.08729 12.72504 1.83391 
H 9.08729 12.72504 9.10983 
H 1.83411 5.47186 5.47536 
H 1.83411 5.47186 12.75128 
H 1.83411 12.74778 5.47536 
H 1.83411 12.74778 12.75128 
H 9.11003 5.47186 5.47536 
H 9.11003 5.47186 12.75128 
H 9.11003 12.74778 5.47536 
H 9.11003 12.74778 12.75128 
H 3.63787 0.00000 1.80867 
H 3.63787 0.00000 9.08459 
H 3.63787 7.27592 1.80867 
H 3.63787 7.27592 9.08459 
H 10.91380 0.00000 1.80867 
H 10.91380 0.00000 9.08459 
H 10.91380 7.27592 1.80867 
H 10.91380 7.27592 9.08459 
H 3.63787 0.00000 5.45012 
H 3.63787 0.00000 12.72604 
H 3.63787 7.27592 5.45012 
H 3.63787 7.27592 12.72604 
H 10.91379 0.00000 5.45012 
H 10.91379 0.00000 12.72604 
H 10.91379 7.27592 5.45012 
H 10.91379 7.27592 12.72604 
H 3.63787 1.80950 0.00000 
H 3.63787 1.80950 7.27592 
H 3.63787 9.08542 0.00000 
H 3.63787 9.08542 7.27592 
H 10.91379 1.80950 0.00000 
H 10.91379 1.80950 7.27592 
H 10.91379 9.08542 0.00000 
H 10.91379 9.08542 7.27592 
H 3.63943 1.83599 3.63810 
H 3.63943 1.83599 10.91402 
H 3.63943 9.11191 3.63810 
H 3.63943 9.11191 10.91402 
H 10.91535 1.83599 3.63810 
H 10.91535 1.83599 10.91402 
H 10.91535 9.11191 3.63810 
H 10.91535 9.11191 10.91402 
H 3.63787 3.63802 1.83516 
H 3.63787 3.63802 9.11108 
H 3.63787 10.91394 1.83516 
H 3.63787 10.91394 9.11108 
H 10.91379 3.63802 1.83516 
H 10.91379 3.63802 9.11108 
H 10.91379 10.91394 1.83516 
H 10.91379 10.91394 9.11108 
H 3.63787 3.63802 5.46412 
H 3.63787 3.63802 12.74004 
H 3.63787 10.91394 5.46412 
H 3.63787 10.91394 12.74004 
H 10.91379 3.63802 5.46412 
H 10.91379 3.63802 12.74004 
H 10.91379 10.91394 5.46412 
H 10.91379 10.91394 12.74004 
H 3.63787 5.44661 0.00000 
H 3.63787 5.44661 7.27592 
H 3.63787 12.72254 0.00000 
H 3.63787 12.72254 7.27592 
H 10.91379 5.44661 0.00000 
H 10.91379 5.44661 7.27592 
H 10.91379 12.72254 0.00000 
H 10.91379 12.72254 7.27592 
H 3.63943 5.47311 3.63654 
H 3.63943 5.47311 10.91246 
H 3.63943 12.74903 3.63654 
H 3.63943 12.74903 10.91246 
H 10.91535 5.47311 3.63654 
H 10.91535 5.47311 10.91246 
H 10.91535 12.74903 3.63654 
H 10.91535 12.74903 10.91246 
H 5.44923 0.00000 0.00000 
H 5.44923 0.00000 7.27592 
H 5.44923 7.27592 0.00000 
H 5.44923 7.27592 7.27592 
H 12.72515 0.00000 0.00000 
H 12.72515 0.00000 7.27592 
H 12.72515 7.27592 0.00000 
H 12.72515 7.27592 7.27592 
H 5.47187 0.00000 3.63978 
H 5.47187 0.00000 10.91570 
H 5.47187 7.27592 3.63978 
H 5.47187 7.27592 10.91570 
H 12.74779 0.00000 3.63978 
H 12.74779 0.00000 10.91570 
H 12.74779 7.27592 3.63978 
H 12.74779 7.27592 10.91570 
H 5.44651 1.81063 1.80980 
H 5.44651 1.81063 9.08572 
H 5.44651 9.08656 1.80980 
H 5.44651 9.08656 9.08572 
H 12.72244 1.81063 1.80980 
H 12.72244 1.81063 9.08572 
H 12.72244 9.08656 1.80980 
H 12.72244 9.08656 9.08572 
H 5.47229 1.83467 5.44354 
H 5.47229 1.83467 12.71946 
H 5.47229 9.11060 5.44354 
H 5.47229 9.11060 12.71946 
H 12.74821 1.83467 5.44354 
H 12.74821 1.83467 12.71946 
H 12.74821 9.11060 5.44354 
H 12.74821 9.11060 12.71946 
H 5.44705 3.63801 0.00000 
H 5.44705 3.63801 7.27592 
H 5.44705 10.91394 0.00000 
H 5.44705 10.91394 7.27592 
H 12.72297 3.63801 0.00000 
H 12.72297 3.63801 7.27592 
H 12.72297 10.91394 0.00000 
H 12.72297 10.91394 7.27592 
H 5.47353 3.63645 3.63822 
H 5.47353 3.63645 10.91414 
H 5.47353 10.91238 3.63822 
H 5.47353 10.91238 10.91414 
H 12.74946 3.63645 3.63822 
H 12.74946 3.63645 10.91414 
H 12.74946 10.91238 3.63822 
H 12.74946 10.91238 10.91414 
H 5.44818 5.44775 1.83515 
H 5.44818 5.44775 9.11108 
H 5.44818 12.72368 1.83515 
H 5.44818 12.72368 9.11108 
H 12.72410 5.44775 1.83515 
H 12.72410 5.44775 9.11108 
H 12.72410 12.72368 1.83515 
H 12.72410 12.72368 9.11108 
H 5.47353 5.47311 5.46890 
H 5.47353 5.47311 12.74482 
H 5.47353 12.74903 5.46890 
H 5.47353 12.74903 12.74482 
H 12.74945 5.47311 5.46890 
H 12.74945 5.47311 12.74482 
H 12.74945 12.74903 5.46890 
H 12.74945 12.74903 12.74482 
Tv 14.5518440000 0.0000000000 0.0000000000
Tv 0.0000000000 14.5518440000 0.0000000000
Tv 0.0000000000 0.0000000000 14.5518440000
