218
Cu310A2_212Li.n5Li216Li216v2_start
Cu 9.18670 2.19366 4.56529 
Cu 9.18094 2.17096 8.20972 
Cu 9.18094 2.17096 0.92087 
Cu 9.16330 4.02460 6.41332 
Cu 10.32881 5.66470 8.17857 
Cu 9.18334 4.05651 10.01828 
Cu 10.32881 5.66470 0.95201 
Cu 9.16330 4.02460 2.71726 
Cu 10.72540 7.43428 6.38564 
Cu 10.71897 7.40778 10.01828 
Cu 10.72540 7.43428 2.74494 
Cu 9.18362 7.95487 4.56529 
Cu 11.26315 9.14975 4.56529 
Cu 9.18068 9.80835 6.39003 
Cu 9.18321 7.92758 8.20125 
Cu 11.26062 9.16111 8.21076 
Cu 9.18207 9.80059 10.01828 
Cu 9.18321 7.92758 0.92933 
Cu 11.26062 9.16111 0.91982 
Cu 9.18068 9.80835 2.74055 
Cu 10.32859 11.41009 4.56529 
Cu 12.44673 1.12943 4.56529 
Cu 10.72035 1.66772 6.38224 
Cu 11.85224 10.84142 6.38307 
Cu 10.32822 11.41226 8.20184 
Cu 12.44310 1.13893 8.19813 
Cu 10.72640 1.66734 10.01828 
Cu 11.85656 10.84751 10.01828 
Cu 10.32822 11.41226 0.92874 
Cu 12.44310 1.13893 0.93245 
Cu 10.72035 1.66772 2.74834 
Cu 11.85224 10.84142 2.74751 
Cu 11.26209 3.41050 4.56529 
Cu 13.51763 4.57716 4.56529 
Cu 11.85012 5.09657 6.37187 
Cu 12.97499 2.84497 6.38128 
Cu 11.25629 3.41050 8.19612 
Cu 13.53066 4.57136 8.20408 
Cu 11.84352 5.09576 10.01828 
Cu 12.97480 2.84530 10.01828 
Cu 11.25629 3.41050 0.93446 
Cu 13.53066 4.57136 0.92650 
Cu 11.85012 5.09657 2.75871 
Cu 12.97499 2.84497 2.74930 
Cu 14.08802 6.30106 6.37957 
Cu 12.44133 6.88330 8.19833 
Cu 14.09038 6.29965 10.01828 
Cu 12.44133 6.88330 0.93225 
Cu 14.08802 6.30106 2.75101 
Cu 14.66709 8.04958 4.56529 
Cu 12.97732 8.59048 6.38216 
Cu 14.66609 8.05104 8.20023 
Cu 12.97578 8.59025 10.01828 
Cu 14.66609 8.05104 0.93035 
Cu 12.97732 8.59048 2.74842 
Cu 13.53026 10.31757 4.56529 
Cu 15.77846 0.01202 4.56529 
Cu 14.09290 0.55343 6.38309 
Cu 15.22803 9.77854 6.38234 
Cu 13.52956 10.31942 8.20014 
Cu 15.77843 0.01219 8.20010 
Cu 14.09274 0.55269 10.01828 
Cu 15.22959 9.77896 10.01828 
Cu 13.52956 10.31942 0.93044 
Cu 15.77843 0.01219 0.93048 
Cu 14.09290 0.55343 2.74749 
Cu 15.22803 9.77854 2.74824 
Cu 14.66707 2.30504 4.56529 
Cu 16.90561 3.51241 4.56529 
Cu 15.22684 4.03166 6.38161 
Cu 16.31666 1.71830 6.38314 
Cu 14.66645 2.30455 8.20017 
Cu 16.90620 3.51195 8.19934 
Cu 15.23288 4.02974 10.01828 
Cu 16.31563 1.71765 10.01828 
Cu 14.66645 2.30455 0.93041 
Cu 16.90620 3.51195 0.93125 
Cu 15.22684 4.03166 2.74897 
Cu 16.31666 1.71830 2.74744 
Cu 15.77748 5.75793 4.56529 
Cu 18.03546 6.94080 4.56529 
Cu 16.31432 7.46562 6.38205 
Cu 17.49654 5.19815 6.38303 
Cu 15.77709 5.76006 8.19925 
Cu 18.03566 6.94118 8.20024 
Cu 16.31545 7.46552 10.01828 
Cu 17.49583 5.19902 10.01828 
Cu 15.77709 5.76006 0.93133 
Cu 18.03566 6.94118 0.93034 
Cu 16.31432 7.46562 2.74853 
Cu 17.49654 5.19815 2.74755 
Cu 16.90696 9.26098 4.56529 
Cu 19.57827 10.30192 4.56529 
Cu 17.49635 10.94571 6.38272 
Cu 18.43042 8.69130 6.38341 
Cu 16.90498 9.25984 8.20058 
Cu 19.57733 10.30162 8.19975 
Cu 17.49673 10.94594 10.01828 
Cu 18.43048 8.69177 10.01828 
Cu 16.90498 9.25984 0.93001 
Cu 19.57733 10.30162 0.93083 
Cu 17.49635 10.94571 2.74786 
Cu 18.43042 8.69130 2.74717 
Cu 18.03536 1.19347 4.56529 
Cu 18.43091 2.94373 6.38266 
Cu 19.57588 0.67886 6.38288 
Cu 18.03612 1.19355 8.20087 
Cu 18.43053 2.94434 10.01828 
Cu 19.57636 0.67836 10.01828 
Cu 18.03612 1.19355 0.92971 
Cu 18.43091 2.94373 2.74792 
Cu 19.57588 0.67886 2.74770 
Cu 19.57765 4.55352 4.56529 
Cu 19.57618 6.42701 6.38287 
Cu 19.57824 4.55395 8.20124 
Cu 19.57622 6.42670 10.01828 
Cu 19.57824 4.55395 0.92934 
Cu 19.57618 6.42701 2.74771 
Cu 8.05875 5.66707 4.56529 
Cu 8.03686 5.66482 8.20067 
Cu 8.03686 5.66482 0.92991 
Cu 7.65530 7.40864 6.37581 
Cu 7.64252 7.41565 10.01828 
Cu 7.65530 7.40864 2.75477 
Cu 7.09703 9.16096 4.56529 
Cu 7.10538 9.15635 8.19795 
Cu 7.10538 9.15635 0.93263 
Cu 8.03649 11.41589 4.56529 
Cu 5.92200 1.14359 4.56529 
Cu 7.64310 1.66595 6.38287 
Cu 6.50896 10.84391 6.38245 
Cu 8.03389 11.41257 8.20240 
Cu 5.91975 1.13955 8.19933 
Cu 7.63712 1.66638 10.01828 
Cu 6.50814 10.84272 10.01828 
Cu 8.03389 11.41257 0.92818 
Cu 5.91975 1.13955 0.93125 
Cu 7.64310 1.66595 2.74771 
Cu 6.50896 10.84391 2.74813 
Cu 7.11445 3.41830 4.56529 
Cu 4.83116 4.57433 4.56529 
Cu 6.51927 5.09457 6.37925 
Cu 5.38775 2.84774 6.38102 
Cu 7.10237 3.40852 8.20407 
Cu 4.83435 4.57563 8.19906 
Cu 6.51030 5.09757 10.01828 
Cu 5.38420 2.84660 10.01828 
Cu 7.10237 3.40852 0.92651 
Cu 4.83435 4.57563 0.93152 
Cu 6.51927 5.09457 2.75133 
Cu 5.38775 2.84774 2.74956 
Cu 5.92635 6.88503 4.56529 
Cu 4.27473 6.29996 6.38144 
Cu 5.92354 6.88745 8.19812 
Cu 4.27196 6.30174 10.01828 
Cu 5.92354 6.88745 0.93246 
Cu 4.27473 6.29996 2.74914 
Cu 3.69866 8.05166 4.56529 
Cu 5.38966 8.59140 6.38300 
Cu 3.69778 8.05141 8.20025 
Cu 5.38707 8.59380 10.01828 
Cu 3.69778 8.05141 0.93033 
Cu 5.38966 8.59140 2.74758 
Cu 4.82970 10.32447 4.56529 
Cu 2.58156 0.01191 4.56529 
Cu 4.27085 0.55381 6.38280 
Cu 3.13374 9.77863 6.38288 
Cu 4.83226 10.32248 8.20037 
Cu 2.58193 0.01150 8.20062 
Cu 4.27063 0.55382 10.01828 
Cu 3.13330 9.77881 10.01828 
Cu 4.83226 10.32248 0.93021 
Cu 2.58193 0.01150 0.92996 
Cu 4.27085 0.55381 2.74778 
Cu 3.13374 9.77863 2.74770 
Cu 3.69653 2.30383 4.56529 
Cu 1.45733 3.51103 4.56529 
Cu 3.13255 4.03135 6.38297 
Cu 2.04610 1.71794 6.38313 
Cu 3.69704 2.30470 8.19979 
Cu 1.45690 3.51082 8.20071 
Cu 3.13403 4.03146 10.01828 
Cu 2.04632 1.71812 10.01828 
Cu 3.69704 2.30470 0.93080 
Cu 1.45690 3.51082 0.92987 
Cu 3.13255 4.03135 2.74762 
Cu 2.04610 1.71794 2.74745 
Cu 2.58165 5.75993 4.56529 
Cu 0.32363 6.94153 4.56529 
Cu 2.04713 7.46573 6.38292 
Cu 0.86468 5.19789 6.38315 
Cu 2.58281 5.75986 8.19978 
Cu 0.32385 6.94109 8.20046 
Cu 2.04660 7.46583 10.01828 
Cu 0.86560 5.19735 10.01828 
Cu 2.58281 5.75986 0.93080 
Cu 0.32385 6.94109 0.93012 
Cu 2.04713 7.46573 2.74766 
Cu 0.86468 5.19789 2.74743 
Cu 1.45730 9.25868 4.56529 
Cu 0.86491 10.94578 6.38302 
Cu 20.72387 8.69108 6.38262 
Cu 1.45700 9.25868 8.20057 
Cu 0.86502 10.94539 10.01828 
Cu 20.72364 8.69053 10.01828 
Cu 1.45700 9.25868 0.93002 
Cu 0.86491 10.94578 2.74756 
Cu 20.72387 8.69108 2.74797 
Cu 0.32355 1.19354 4.56529 
Cu 20.72397 2.94335 6.38258 
Cu 0.32367 1.19303 8.20073 
Cu 20.72381 2.94277 10.01828 
Cu 0.32367 1.19303 0.92985 
Cu 20.72397 2.94335 2.74800 
Pu 10.30088 5.66247 4.56529 
Tv 20.7926270000 0.0000000000 0.0000000000
Tv 0.0000000000 11.4959040000 0.0000000000
Tv 0.0000000000 0.0000000000 10.9059720000
