30
mp-19017_start
Li 0.00000 0.00000 0.00000 
Li 5.22533 3.04368 2.37598 
Li 5.22533 0.00000 2.37598 
O 1.01011 1.52184 3.52860 
O 8.71989 3.33093 3.39214 
O 8.71989 5.80011 3.39214 
O 9.44057 4.56551 1.22336 
O 0.44642 4.56551 3.35556 
O 4.21522 4.56551 1.15262 
O 1.73078 0.28725 1.35982 
O 6.95611 2.75643 1.01615 
O 3.49456 3.33093 3.73580 
O 3.49456 5.80011 3.73580 
O 10.00425 1.52184 1.39640 
O 4.77891 1.52184 0.97958 
O 5.67176 4.56551 3.77238 
O 6.23544 1.52184 3.59934 
O 6.95611 0.28725 1.01615 
O 1.73078 2.75643 1.35982 
P 0.98970 1.52184 1.99115 
P 4.23563 4.56551 4.36714 
P 6.21503 1.52184 0.38481 
P 9.46097 4.56551 2.76080 
Fe 8.16809 1.52184 2.48850 
Fe 7.50792 4.56551 0.11254 
Fe 2.94275 1.52184 4.63942 
Fe 2.28258 4.56551 2.26345 
Tv 10.4506680000 0.0000000000 0.0000000000
Tv 0.0000000000 6.0873510000 0.0000000000
Tv 0.0000000000 0.0000000000 4.7519550000
